532
Li1 Mo2 H2 S4
Li    0.000000   28.416769    3.008660
Li    0.000000   11.366360    3.008660
Li    0.000000   17.049829    3.008660
Li    0.000000   22.733299    3.008660
Li    0.000000    5.682890    3.008660
Li    0.000000   -0.000580    3.008660
Li    3.276080   11.366360    3.008660
Li    3.276080    5.682890    3.008660
Li    3.276080   22.733299    3.008660
Li    3.276080   28.416769    3.008660
Li    3.276080   17.049829    3.008660
Li    3.276080   -0.000580    3.008660
Li    6.552181   17.049829    3.008660
Li    6.552181   22.733299    3.008660
Li    6.552181   28.416769    3.008660
Li    6.552181    5.682890    3.008660
Li    6.552181   11.366360    3.008660
Li    6.552181   -0.000580    3.008660
Li    9.828281    5.682890    3.008660
Li    9.828281   11.366360    3.008660
Li    9.828281   17.049829    3.008660
Li    9.828281   22.733299    3.008660
Li    9.828281   28.416769    3.008660
Li    9.828281   -0.000580    3.008660
Li   13.104381   11.366360    3.008660
Li   13.104381   17.049829    3.008660
Li   13.104381   28.416769    3.008660
Li   13.104381   22.733299    3.008660
Li   13.104381   -0.000580    3.008660
Li   13.104381    5.682890    3.008660
Li   16.380482   17.049829    3.008660
Li   16.380482   11.366360    3.008660
Li   16.380482    5.682890    3.008660
Li   16.380482   28.416769    3.008660
Li   16.380482   22.733299    3.008660
Li   16.380482   -0.000580    3.008660
Li   19.656582   11.366360    3.008660
Li   19.656582   17.049829    3.008660
Li   19.656582   22.733299    3.008660
Li   19.656582    5.682890    3.008660
Li   19.656582   28.416769    3.008660
Li   19.656582   -0.000580    3.008660
Li   22.932680   17.049829    3.008660
Li   22.932680   22.733299    3.008660
Li   22.932680   28.416769    3.008660
Li   22.932680   11.366360    3.008660
Li   22.932680    5.682890    3.008660
Li   22.932680   -0.000580    3.008660
Li   26.208782    5.682890    3.008660
Li   26.208782   11.366360    3.008660
Li   26.208782   17.049829    3.008660
Li   26.208782   22.733299    3.008660
Li   26.208782   28.416769    3.008660
Li   26.208782   -0.000580    3.008660
Li   29.484882    5.682890    3.008660
Li   29.484882   28.416769    3.008660
Li   29.484882   22.733299    3.008660
Li   29.484882   17.049829    3.008660
Li   29.484882   -0.000580    3.008660
Li   29.484882   11.366360    3.008660
Li   32.761002   11.366360    3.008660
Li   32.761002   22.733299    3.008660
Li   32.761002   17.049829    3.008660
Li   32.761002    5.682890    3.008660
Li   32.761002   28.416769    3.008660
Li   32.761002   -0.000580    3.008660
Li   36.037083    5.682890    3.008660
Li   36.037083   22.733299    3.008660
Li   36.037083   11.366360    3.008660
Li   36.037083   17.049829    3.008660
Li   36.037083   -0.000580    3.008660
Li   36.037083   28.416769    3.008660
Mo    0.000000   17.123016    0.018800
Mo    0.000000   22.806484    0.018800
Mo    0.000000    5.756076    0.018800
Mo    0.000000   11.439546    0.018800
Mo    0.000000   28.489956    0.018800
Mo    0.000000    0.072606    0.018800
Mo    1.638030    2.770720    0.011320
Mo    1.638030   31.188068    0.011320
Mo    1.638030   14.137659    0.011320
Mo    1.638030    8.454190    0.011320
Mo    1.638030   25.504599    0.011320
Mo    1.638030   19.821129    0.011320
Mo    3.276080    0.072606    0.018800
Mo    3.276080   28.489956    0.018800
Mo    3.276080    5.756076    0.018800
Mo    3.276080   11.439546    0.018800
Mo    3.276080   17.123016    0.018800
Mo    3.276080   22.806484    0.018800
Mo    4.914131    2.770720    0.011320
Mo    4.914131   31.188068    0.011320
Mo    4.914131    8.454190    0.011320
Mo    4.914131   25.504599    0.011320
Mo    4.914131   14.137659    0.011320
Mo    4.914131   19.821129    0.011320
Mo    6.552181   28.489956    0.018800
Mo    6.552181    0.072606    0.018800
Mo    6.552181   17.123016    0.018800
Mo    6.552181    5.756076    0.018800
Mo    6.552181   22.806484    0.018800
Mo    6.552181   11.439546    0.018800
Mo    8.190231    2.770720    0.011320
Mo    8.190231   25.504599    0.011320
Mo    8.190231   19.821129    0.011320
Mo    8.190231   14.137659    0.011320
Mo    8.190231   31.188068    0.011320
Mo    8.190231    8.454190    0.011320
Mo    9.828281   28.489956    0.018800
Mo    9.828281    0.072606    0.018800
Mo    9.828281   17.123016    0.018800
Mo    9.828281   11.439546    0.018800
Mo    9.828281    5.756076    0.018800
Mo    9.828281   22.806484    0.018800
Mo   11.466331    2.770720    0.011320
Mo   11.466331   19.821129    0.011320
Mo   11.466331   25.504599    0.011320
Mo   11.466331   14.137659    0.011320
Mo   11.466331    8.454190    0.011320
Mo   11.466331   31.188068    0.011320
Mo   13.104381   22.806484    0.018800
Mo   13.104381    5.756076    0.018800
Mo   13.104381   11.439546    0.018800
Mo   13.104381   17.123016    0.018800
Mo   13.104381   28.489956    0.018800
Mo   13.104381    0.072606    0.018800
Mo   14.742431   31.188068    0.011320
Mo   14.742431    8.454190    0.011320
Mo   14.742431   14.137659    0.011320
Mo   14.742431   25.504599    0.011320
Mo   14.742431   19.821129    0.011320
Mo   14.742431    2.770720    0.011320
Mo   16.380482    0.072606    0.018800
Mo   16.380482   11.439546    0.018800
Mo   16.380482   17.123016    0.018800
Mo   16.380482   28.489956    0.018800
Mo   16.380482    5.756076    0.018800
Mo   16.380482   22.806484    0.018800
Mo   18.018532    2.770720    0.011320
Mo   18.018532   31.188068    0.011320
Mo   18.018532    8.454190    0.011320
Mo   18.018532   19.821129    0.011320
Mo   18.018532   14.137659    0.011320
Mo   18.018532   25.504599    0.011320
Mo   19.656582   11.439546    0.018800
Mo   19.656582   17.123016    0.018800
Mo   19.656582   22.806484    0.018800
Mo   19.656582   28.489956    0.018800
Mo   19.656582    0.072606    0.018800
Mo   19.656582    5.756076    0.018800
Mo   21.294630   31.188068    0.011320
Mo   21.294630    2.770720    0.011320
Mo   21.294630   25.504599    0.011320
Mo   21.294630   19.821129    0.011320
Mo   21.294630    8.454190    0.011320
Mo   21.294630   14.137659    0.011320
Mo   22.932680    0.072606    0.018800
Mo   22.932680   28.489956    0.018800
Mo   22.932680    5.756076    0.018800
Mo   22.932680   17.123016    0.018800
Mo   22.932680   22.806484    0.018800
Mo   22.932680   11.439546    0.018800
Mo   24.570732   31.188068    0.011320
Mo   24.570732    2.770720    0.011320
Mo   24.570732   25.504599    0.011320
Mo   24.570732   19.821129    0.011320
Mo   24.570732   14.137659    0.011320
Mo   24.570732    8.454190    0.011320
Mo   26.208782    0.072606    0.018800
Mo   26.208782    5.756076    0.018800
Mo   26.208782   28.489956    0.018800
Mo   26.208782   22.806484    0.018800
Mo   26.208782   17.123016    0.018800
Mo   26.208782   11.439546    0.018800
Mo   27.846832   19.821129    0.011320
Mo   27.846832   14.137659    0.011320
Mo   27.846832    8.454190    0.011320
Mo   27.846832   25.504599    0.011320
Mo   27.846832    2.770720    0.011320
Mo   27.846832   31.188068    0.011320
Mo   29.484882   17.123016    0.018800
Mo   29.484882   11.439546    0.018800
Mo   29.484882   22.806484    0.018800
Mo   29.484882    5.756076    0.018800
Mo   29.484882   28.489956    0.018800
Mo   29.484882    0.072606    0.018800
Mo   31.122932    2.770720    0.011320
Mo   31.122932   31.188068    0.011320
Mo   31.122932   14.137659    0.011320
Mo   31.122932   25.504599    0.011320
Mo   31.122932   19.821129    0.011320
Mo   31.122932    8.454190    0.011320
Mo   32.761002   17.123016    0.018800
Mo   32.761002   22.806484    0.018800
Mo   32.761002   11.439546    0.018800
Mo   32.761002    5.756076    0.018800
Mo   32.761002   28.489956    0.018800
Mo   32.761002    0.072606    0.018800
Mo   34.399033   31.188068    0.011320
Mo   34.399033    2.770720    0.011320
Mo   34.399033    8.454190    0.011320
Mo   34.399033   19.821129    0.011320
Mo   34.399033   25.504599    0.011320
Mo   34.399033   14.137659    0.011320
Mo   36.037083    0.072606    0.018800
Mo   36.037083   28.489956    0.018800
Mo   36.037083    5.756076    0.018800
Mo   36.037083   11.439546    0.018800
Mo   36.037083   22.806484    0.018800
Mo   36.037083   17.123016    0.018800
 S   -1.638070   -0.955238   -1.507660
 S   -1.638070   27.462111   -1.507660
 S   -1.638070    4.728232   -1.507660
 S   -1.638070   21.778641   -1.507660
 S   -1.638070   16.095171   -1.507660
 S   -1.638070   10.411702   -1.507660
 S   -1.638070   10.395123    1.601140
 S   -1.638070   21.762062    1.601140
 S   -1.638070    4.711653    1.601140
 S   -1.638070   27.445532    1.601140
 S   -1.638070   -0.971816    1.601140
 S    0.000000   18.951267   -1.574860
 S    0.000000   24.634739   -1.574860
 S    0.000000    7.584329   -1.574860
 S    0.000000   13.267799   -1.574860
 S    0.000000   30.318209   -1.574860
 S    0.000000    1.900859   -1.574860
 S   -1.638070   16.078592    1.601140
 S    1.638030   -0.955238   -1.507660
 S    1.638030   16.095171   -1.507660
 S    1.638030   21.778641   -1.507660
 S    1.638030   10.411702   -1.507660
 S    1.638030    4.728232   -1.507660
 S    1.638030   27.462111   -1.507660
 S    0.000000    7.603232    1.647340
 S    0.000000   18.970173    1.647340
 S    0.000000   24.653643    1.647340
 S    0.000000   30.337111    1.647340
 S    0.000000    1.919762    1.647340
 S    0.000000   13.286702    1.647340
 S    3.276080   13.267799   -1.574860
 S    3.276080   18.951267   -1.574860
 S    3.276080    7.584329   -1.574860
 S    3.276080   30.318209   -1.574860
 S    3.276080    1.900859   -1.574860
 S    3.276080    7.603232    1.647340
 S    3.276080    1.919762    1.647340
 S    3.276080   30.337111    1.647340
 S    3.276080   24.634739   -1.574860
 S    1.638030   27.445532    1.601140
 S    1.638030   -0.971816    1.601140
 S    1.638030   33.129002    1.601140
 S    1.638030    4.711653    1.601140
 S    1.638030   10.395123    1.601140
 S    1.638030   21.762062    1.601140
 S    1.638030   16.078592    1.601140
 S    1.638030   33.145580   -1.507660
 S    6.552181   30.318209   -1.574860
 S    6.552181    7.584329   -1.574860
 S    6.552181   13.267799   -1.574860
 S    6.552181   24.634739   -1.574860
 S    6.552181   18.951267   -1.574860
 S    6.552181    1.919762    1.647340
 S    6.552181   24.653643    1.647340
 S    6.552181   18.970173    1.647340
 S    6.552181   13.286702    1.647340
 S    6.552181    7.603232    1.647340
 S    6.552181   30.337111    1.647340
 S    8.190231   27.445532    1.601140
 S    8.190231   21.762062    1.601140
 S    8.190231   10.395123    1.601140
 S    8.190231    4.711653    1.601140
 S    8.190231   16.078592    1.601140
 S    8.190231    4.728232   -1.507660
 S    8.190231   21.778641   -1.507660
 S    8.190231   16.095171   -1.507660
 S    8.190231   33.145580   -1.507660
 S    8.190231   27.462111   -1.507660
 S    8.190231   10.411702   -1.507660
 S    8.190231   -0.955238   -1.507660
 S    4.914131    4.711653    1.601140
 S    4.914131   10.395123    1.601140
 S    4.914131   21.762062    1.601140
 S    4.914131   27.445532    1.601140
 S    4.914131   16.078592    1.601140
 S    4.914131   33.129002    1.601140
 S    4.914131   -0.971816    1.601140
 S    6.552181    1.900859   -1.574860
 S    4.914131    4.728232   -1.507660
 S    4.914131   10.411702   -1.507660
 S    4.914131   16.095171   -1.507660
 S    4.914131   33.145580   -1.507660
 S    4.914131   21.778641   -1.507660
 S    4.914131   27.462111   -1.507660
 S    4.914131   -0.955238   -1.507660
 S    3.276080   13.286702    1.647340
 S    3.276080   18.970173    1.647340
 S    3.276080   24.653643    1.647340
 S   13.104381   24.653643    1.647340
 S   13.104381   18.970173    1.647340
 S   13.104381   13.286702    1.647340
 S   13.104381   30.337111    1.647340
 S   13.104381    7.603232    1.647340
 S   14.742431   21.778641   -1.507660
 S   14.742431   33.145580   -1.507660
 S   14.742431   10.411702   -1.507660
 S   14.742431   16.095171   -1.507660
 S   14.742431    4.728232   -1.507660
 S   14.742431   -0.955238   -1.507660
 S   14.742431   27.462111   -1.507660
 S   14.742431   10.395123    1.601140
 S   14.742431    4.711653    1.601140
 S   14.742431   -0.971816    1.601140
 S   14.742431   33.129002    1.601140
 S   14.742431   16.078592    1.601140
 S   14.742431   21.762062    1.601140
 S   14.742431   27.445532    1.601140
 S   18.018532   -0.955238   -1.507660
 S   18.018532   16.095171   -1.507660
 S   18.018532   21.778641   -1.507660
 S   18.018532   10.411702   -1.507660
 S   18.018532    4.728232   -1.507660
 S   18.018532   27.462111   -1.507660
 S   18.018532    4.711653    1.601140
 S   18.018532   16.078592    1.601140
 S   18.018532   10.395123    1.601140
 S   18.018532   33.145580   -1.507660
 S   16.380482   30.337111    1.647340
 S   16.380482   13.286702    1.647340
 S   16.380482    7.603232    1.647340
 S   16.380482    1.919762    1.647340
 S   16.380482   18.970173    1.647340
 S   16.380482   24.653643    1.647340
 S   16.380482   24.634739   -1.574860
 S   16.380482    7.584329   -1.574860
 S   16.380482   13.267799   -1.574860
 S   16.380482   18.951267   -1.574860
 S   16.380482   30.318209   -1.574860
 S   16.380482    1.900859   -1.574860
 S   11.466331   16.095171   -1.507660
 S   11.466331   21.778641   -1.507660
 S   11.466331   33.145580   -1.507660
 S   11.466331    4.711653    1.601140
 S   11.466331   21.762062    1.601140
 S   11.466331   -0.971816    1.601140
 S   11.466331   33.129002    1.601140
 S   11.466331   27.445532    1.601140
 S   11.466331   10.395123    1.601140
 S   11.466331   16.078592    1.601140
 S   13.104381   13.267799   -1.574860
 S   13.104381   18.951267   -1.574860
 S   13.104381   24.634739   -1.574860
 S   13.104381    1.919762    1.647340
 S   13.104381    7.584329   -1.574860
 S   13.104381    1.900859   -1.574860
 S   13.104381   30.318209   -1.574860
 S    9.828281   30.337111    1.647340
 S    9.828281   18.970173    1.647340
 S    9.828281    1.919762    1.647340
 S    9.828281   24.653643    1.647340
 S    9.828281   13.286702    1.647340
 S    9.828281    7.603232    1.647340
 S   11.466331   -0.955238   -1.507660
 S   11.466331   27.462111   -1.507660
 S   11.466331   10.411702   -1.507660
 S   11.466331    4.728232   -1.507660
 S    9.828281    7.584329   -1.574860
 S    9.828281    1.900859   -1.574860
 S    9.828281   24.634739   -1.574860
 S    9.828281   18.951267   -1.574860
 S    9.828281   13.267799   -1.574860
 S    9.828281   30.318209   -1.574860
 S    8.190231   33.129002    1.601140
 S    8.190231   -0.971816    1.601140
 S   27.846832   16.078592    1.601140
 S   27.846832   21.762062    1.601140
 S   27.846832    4.711653    1.601140
 S   27.846832   33.129002    1.601140
 S   27.846832   -0.971816    1.601140
 S   27.846832   27.445532    1.601140
 S   29.484882    1.900859   -1.574860
 S   29.484882   13.267799   -1.574860
 S   29.484882   30.318209   -1.574860
 S   29.484882    7.603232    1.647340
 S   29.484882   13.286702    1.647340
 S   29.484882   18.970173    1.647340
 S   29.484882   24.653643    1.647340
 S   29.484882   30.337111    1.647340
 S   29.484882    1.919762    1.647340
 S   29.484882   24.634739   -1.574860
 S   29.484882   18.951267   -1.574860
 S   29.484882    7.584329   -1.574860
 S   32.761002   24.634739   -1.574860
 S   32.761002   18.951267   -1.574860
 S   32.761002    7.584329   -1.574860
 S   32.761002   13.267799   -1.574860
 S   32.761002   30.318209   -1.574860
 S   32.761002    1.900859   -1.574860
 S   31.122932    4.711653    1.601140
 S   31.122932   21.762062    1.601140
 S   31.122932   10.395123    1.601140
 S   31.122932   33.129002    1.601140
 S   31.122932   -0.971816    1.601140
 S   31.122932   16.078592    1.601140
 S   31.122932   27.445532    1.601140
 S   31.122932   33.145580   -1.507660
 S   31.122932   27.462111   -1.507660
 S   31.122932    4.728232   -1.507660
 S   31.122932   -0.955238   -1.507660
 S   31.122932   21.778641   -1.507660
 S   31.122932   16.095171   -1.507660
 S   31.122932   10.411702   -1.507660
 S   36.037083    1.900859   -1.574860
 S   36.037083   13.267799   -1.574860
 S   36.037083   24.634739   -1.574860
 S   36.037083   18.951267   -1.574860
 S   36.037083   30.318209   -1.574860
 S   36.037083    7.584329   -1.574860
 S   36.037083    7.603232    1.647340
 S   36.037083    1.919762    1.647340
 S   36.037083   18.970173    1.647340
 S   36.037083   30.337111    1.647340
 S   37.675133   -0.955238   -1.507660
 S   37.675133   21.778641   -1.507660
 S   37.675133   16.095171   -1.507660
 S   37.675133   27.445532    1.601140
 S   37.675133   10.411702   -1.507660
 S   37.675133    4.711653    1.601140
 S   37.675133   10.395123    1.601140
 S   37.675133   21.762062    1.601140
 S   37.675133   16.078592    1.601140
 S   37.675133   -0.971816    1.601140
 S   37.675133    4.728232   -1.507660
 S   37.675133   27.462111   -1.507660
 S   36.037083   24.653643    1.647340
 S   36.037083   13.286702    1.647340
 S   34.399033   33.145580   -1.507660
 S   34.399033   21.762062    1.601140
 S   34.399033   27.445532    1.601140
 S   34.399033   16.078592    1.601140
 S   34.399033   10.395123    1.601140
 S   34.399033   33.129002    1.601140
 S   34.399033   -0.971816    1.601140
 S   34.399033    4.711653    1.601140
 S   34.399033   -0.955238   -1.507660
 S   34.399033   16.095171   -1.507660
 S   34.399033   21.778641   -1.507660
 S   34.399033   10.411702   -1.507660
 S   34.399033    4.728232   -1.507660
 S   34.399033   27.462111   -1.507660
 S   32.761002   13.286702    1.647340
 S   32.761002   18.970173    1.647340
 S   32.761002   24.653643    1.647340
 S   32.761002    7.603232    1.647340
 S   32.761002    1.919762    1.647340
 S   32.761002   30.337111    1.647340
 S   22.932680    1.919762    1.647340
 S   22.932680   18.970173    1.647340
 S   22.932680    7.603232    1.647340
 S   22.932680   13.286702    1.647340
 S   22.932680   24.653643    1.647340
 S   22.932680   30.337111    1.647340
 S   24.570732   10.411702   -1.507660
 S   24.570732    4.728232   -1.507660
 S   24.570732   21.778641   -1.507660
 S   24.570732   33.145580   -1.507660
 S   24.570732   27.462111   -1.507660
 S   24.570732   16.095171   -1.507660
 S   24.570732   -0.955238   -1.507660
 S   24.570732   33.129002    1.601140
 S   24.570732   10.395123    1.601140
 S   24.570732    4.711653    1.601140
 S   24.570732   27.445532    1.601140
 S   24.570732   -0.971816    1.601140
 S   24.570732   21.762062    1.601140
 S   24.570732   16.078592    1.601140
 S   27.846832   27.462111   -1.507660
 S   27.846832   -0.955238   -1.507660
 S   27.846832   16.095171   -1.507660
 S   27.846832    4.728232   -1.507660
 S   27.846832   10.395123    1.601140
 S   27.846832   33.145580   -1.507660
 S   27.846832   21.778641   -1.507660
 S   27.846832   10.411702   -1.507660
 S   26.208782   30.337111    1.647340
 S   26.208782   18.970173    1.647340
 S   26.208782    1.919762    1.647340
 S   26.208782   24.653643    1.647340
 S   26.208782   13.286702    1.647340
 S   26.208782    7.603232    1.647340
 S   26.208782   30.318209   -1.574860
 S   26.208782    1.900859   -1.574860
 S   26.208782   24.634739   -1.574860
 S   26.208782   13.267799   -1.574860
 S   26.208782   18.951267   -1.574860
 S   26.208782    7.584329   -1.574860
 S   21.294630    4.728232   -1.507660
 S   21.294630   16.095171   -1.507660
 S   21.294630   10.411702   -1.507660
 S   21.294630   33.145580   -1.507660
 S   21.294630   21.778641   -1.507660
 S   21.294630   -0.971816    1.601140
 S   21.294630   33.129002    1.601140
 S   21.294630   10.395123    1.601140
 S   21.294630   21.762062    1.601140
 S   21.294630   16.078592    1.601140
 S   21.294630   27.445532    1.601140
 S   21.294630    4.711653    1.601140
 S   22.932680   30.318209   -1.574860
 S   22.932680    7.584329   -1.574860
 S   22.932680   24.634739   -1.574860
 S   22.932680   13.267799   -1.574860
 S   22.932680   18.951267   -1.574860
 S   22.932680    1.900859   -1.574860
 S   19.656582    1.900859   -1.574860
 S   19.656582   24.653643    1.647340
 S   19.656582   13.286702    1.647340
 S   19.656582   18.970173    1.647340
 S   19.656582    1.919762    1.647340
 S   21.294630   27.462111   -1.507660
 S   21.294630   -0.955238   -1.507660
 S   19.656582   30.337111    1.647340
 S   19.656582    7.603232    1.647340
 S   19.656582   24.634739   -1.574860
 S   19.656582   18.951267   -1.574860
 S   19.656582   13.267799   -1.574860
 S   19.656582    7.584329   -1.574860
 S   19.656582   30.318209   -1.574860
 S   18.018532   33.129002    1.601140
 S   18.018532   -0.971816    1.601140
 S   18.018532   21.762062    1.601140
 S   18.018532   27.445532    1.601140
