483
Ti1 Mo4 H2 S8
 H   20.702135   13.777934    4.743680
 H   20.746729   14.493956    4.925120
Mo   18.132538    8.573395   -0.029180
Mo   18.132538   14.259545   -0.029180
Mo   11.538888   19.945696   -0.029180
Mo   11.538888   25.631845   -0.029180
Mo   31.319838    2.887245   -0.029180
Mo   31.319838    8.573395   -0.029180
Mo   11.538888   14.259545   -0.029180
Mo   24.726189   25.631845   -0.029180
Mo   11.538888    8.573395   -0.029180
Mo   11.538888    2.887245   -0.029180
Mo    4.945238   25.631845   -0.029180
Mo   18.132538    2.887245   -0.029180
Mo    4.945238    8.573395   -0.029180
Mo    4.945238    2.887245   -0.029180
Mo    4.945238   19.945696   -0.029180
Mo    4.945238   14.259545   -0.029180
Mo   31.319838   25.631845   -0.029180
Mo   31.319838   19.945696   -0.029180
Mo   31.319838   14.259545   -0.029180
Mo   24.726189    8.573395   -0.029180
Mo   24.726189   14.259545   -0.029180
Mo   24.726189    2.887245   -0.029180
Mo   24.726189   19.945696   -0.029180
Mo   18.132538   19.945696   -0.029180
Mo   18.132538   25.631845   -0.029180
Mo    8.242063   31.186468    0.014500
Mo   14.835713    2.755719    0.014500
Mo    8.242063   25.500319    0.014500
Mo   14.835713   31.186468    0.014500
Mo    1.648413   25.500319    0.014500
Mo    8.242063    2.755719    0.014500
Mo   34.616665   19.814169    0.014500
Mo    1.648413   19.814169    0.014500
Mo    1.648413    2.755719    0.014500
Mo    1.648413   31.186468    0.014500
Mo   34.616665    2.755719    0.014500
Mo   34.616665   31.186468    0.014500
Mo   34.616665   14.128019    0.014500
Mo    1.648413    8.441869    0.014500
Mo   34.616665    8.441869    0.014500
Mo    1.648413   14.128019    0.014500
Mo    8.242063    8.441869    0.014500
Mo   14.835713    8.441869    0.014500
Mo    8.242063   19.814169    0.014500
Mo    8.242063   14.128019    0.014500
Mo   21.429363    8.441869    0.014500
Mo   14.835713   19.814169    0.014500
Mo   14.835713   25.500319    0.014500
Mo   14.835713   14.128019    0.014500
Mo   34.616665   25.500319    0.014500
Mo   21.429363   31.186468    0.014500
Mo   21.429363    2.755719    0.014500
Mo   28.023012    2.755719    0.014500
Mo   28.023012   31.186468    0.014500
Mo   28.023012    8.441869    0.014500
Mo   21.429363   19.814169    0.014500
Mo   21.429363   25.500319    0.014500
Mo   28.023012   14.128019    0.014500
Mo   21.429363   14.128019    0.014500
Mo   32.970638   11.404700    0.017220
Mo    0.002387    5.718550    0.017220
Mo    0.002387   28.463150    0.017220
Mo    0.002387    0.032400    0.017220
Mo   32.970638    0.032400    0.017220
Mo   32.970638   28.463150    0.017220
Mo   28.023012   25.500319    0.014500
Mo   28.023012   19.814169    0.014500
Mo    6.596037    0.032400    0.017220
Mo    6.596037   22.777000    0.017220
Mo   32.970638   17.090851    0.017220
Mo   32.970638   22.777000    0.017220
Mo   32.970638    5.718550    0.017220
Mo    0.002387   11.404700    0.017220
Mo    0.002387   17.090851    0.017220
Mo    0.002387   22.777000    0.017220
Mo   13.189687   17.090851    0.017220
Mo   13.189687    5.718550    0.017220
Mo    6.596037   28.463150    0.017220
Mo    6.596037    5.718550    0.017220
Mo    6.596037   17.090851    0.017220
Mo   13.189687   11.404700    0.017220
Mo    6.596037   11.404700    0.017220
Mo   13.189687   28.463150    0.017220
Mo   13.189687    0.032400    0.017220
Mo   36.262688    0.032400    0.017220
Mo   36.262688   28.463150    0.017220
Mo   36.262688   11.404700    0.017220
Mo   26.376987   22.777000    0.017220
Mo    3.294438    5.718550    0.017220
Mo    3.294438   11.404700    0.017220
Mo   26.376987   28.463150    0.017220
Mo   36.262688    5.718550    0.017220
Mo    3.294438    0.032400    0.017220
Mo   26.376987    0.032400    0.017220
Mo   13.189687   22.777000    0.017220
Mo   19.783337   28.463150    0.017220
Mo   19.783337    0.032400    0.017220
Mo   19.783337   11.404700    0.017220
Mo   19.783337   22.777000    0.017220
Mo   19.783337    5.718550    0.017220
Mo   19.783337   17.090851    0.017220
Mo    9.888088   17.090851    0.017220
Mo    9.888088   11.404700    0.017220
Mo    9.888088    5.718550    0.017220
Mo   23.075388    5.718550    0.017220
Mo    9.888088   22.777000    0.017220
Mo   36.262688   22.777000    0.017220
Mo   16.481737   28.463150    0.017220
Mo   16.481737    0.032400    0.017220
Mo    9.888088   28.463150    0.017220
Mo    9.888088    0.032400    0.017220
Mo   36.262688   17.090851    0.017220
Mo    3.294438   22.777000    0.017220
Mo    3.294438   17.090851    0.017220
Mo   26.376987    5.718550    0.017220
Mo   26.376987   11.404700    0.017220
Mo   26.376987   17.090851    0.017220
Mo    3.294438   28.463150    0.017220
Mo   23.075388   11.404700    0.017220
Mo   23.075388   17.090851    0.017220
Mo   29.669039   28.463150    0.017220
Mo   29.669039    0.032400    0.017220
Mo   23.075388   22.777000    0.017220
Mo   23.075388    0.032400    0.017220
Mo   16.481737   22.777000    0.017220
Mo   16.481737   17.090851    0.017220
Mo   23.075388   28.463150    0.017220
Mo   16.481737   11.404700    0.017220
Mo   16.481737    5.718550    0.017220
Mo   29.669039   22.777000    0.017220
Mo   29.669039   17.090851    0.017220
Mo   29.669039   11.404700    0.017220
Mo   29.669039    5.718550    0.017220
 S   -1.648412   -0.905622   -1.548361
 S   -1.648412   27.525127   -1.548361
 S   31.319838   -0.905622   -1.548361
 S   31.319838   27.525127   -1.548361
 S   -1.648412    4.780528   -1.548361
 S   -1.648412   10.466678   -1.548361
 S   31.319838    4.780528   -1.548361
 S   -1.648412   16.152828   -1.548361
 S   31.319838   10.466678   -1.548361
 S    4.945238   27.525127   -1.548361
 S   31.319838   21.838978   -1.548361
 S   31.319838   16.152828   -1.548361
 S   -1.648412   21.838978   -1.548361
 S    4.945238   16.152828   -1.548361
 S    4.945238   -0.905622   -1.548361
 S    4.945238   21.838978   -1.548361
 S    4.945238   10.466678   -1.548361
 S    4.945238    4.780528   -1.548361
 S   18.132538   -0.905622   -1.548361
 S   18.132538    4.780528   -1.548361
 S   11.538888   10.466678   -1.548361
 S   18.132538   27.525127   -1.548361
 S   11.538888   27.525127   -1.548361
 S   11.538888   -0.905622   -1.548361
 S   11.538888    4.780528   -1.548361
 S   11.538888   16.152828   -1.548361
 S   24.726189   16.152828   -1.548361
 S   24.726189    4.780528   -1.548361
 S   11.538888   21.838978   -1.548361
 S   24.726189   27.525127   -1.548361
 S   18.132538   21.838978   -1.548361
 S   24.726189   10.466678   -1.548361
 S   24.726189   -0.905622   -1.548361
 S   18.132538   16.152828   -1.548361
 S   18.132538   10.466678   -1.548361
 S   19.780581    1.903490   -1.547360
 S   19.780581    7.589640   -1.547360
 S   19.780581   30.334240   -1.547360
 S   13.186931   18.961941   -1.547360
 S   13.186931   13.275790   -1.547360
 S   32.967880    1.903490   -1.547360
 S   32.967880   30.334240   -1.547360
 S   13.186931   30.334240   -1.547360
 S   13.186931    7.589640   -1.547360
 S   32.967880   13.275790   -1.547360
 S   -0.000369   13.275790   -1.547360
 S   -0.000369    1.903490   -1.547360
 S   -0.000369   30.334240   -1.547360
 S   -0.000369   18.961941   -1.547360
 S   32.967880   18.961941   -1.547360
 S   -0.000369    7.589640   -1.547360
 S   32.967880    7.589640   -1.547360
 S    6.593281    1.903490   -1.547360
 S    6.593281    7.589640   -1.547360
 S    6.593281   24.648090   -1.547360
 S    6.593281   30.334240   -1.547360
 S    6.593281   13.275790   -1.547360
 S   13.186931   24.648090   -1.547360
 S    6.593281   18.961941   -1.547360
 S   13.186931    1.903490   -1.547360
 S   37.913486   16.152828   -1.548361
 S   37.913486   21.838978   -1.548361
 S   32.967880   24.648090   -1.547360
 S   -0.000369   24.648090   -1.547360
 S   37.913486   10.466678   -1.548361
 S   37.913486    4.780528   -1.548361
 S   37.913486   27.525127   -1.548361
 S   37.913486   -0.905622   -1.548361
 S   24.726189   21.838978   -1.548361
 S   23.078144    1.903490   -1.547360
 S   16.484495   24.648090   -1.547360
 S   16.484495   18.961941   -1.547360
 S   23.078144   18.961941   -1.547360
 S   23.078144   24.648090   -1.547360
 S   29.671795   13.275790   -1.547360
 S   29.671795    1.903490   -1.547360
 S   29.671795   30.334240   -1.547360
 S   29.671795    7.589640   -1.547360
 S   34.616665    4.718219   -1.484700
 S    1.648413    4.718219   -1.484700
 S    1.648413   27.462818   -1.484700
 S    1.648413   -0.967931   -1.484700
 S   34.616665   -0.967931   -1.484700
 S   34.616665   27.462818   -1.484700
 S   29.671795   24.648090   -1.547360
 S   29.671795   18.961941   -1.547360
 S    8.242063   -0.967931   -1.484700
 S    8.242063    4.718219   -1.484700
 S   34.616665   16.090519   -1.484700
 S    8.242063   27.462818   -1.484700
 S   34.616665   10.404369   -1.484700
 S    1.648413   10.404369   -1.484700
 S    1.648413   16.090519   -1.484700
 S    1.648413   21.776669   -1.484700
 S   14.835713   16.090519   -1.484700
 S   14.835713    4.718219   -1.484700
 S   34.616665   21.776669   -1.484700
 S   14.835713   27.462818   -1.484700
 S    8.242063   16.090519   -1.484700
 S   14.835713   10.404369   -1.484700
 S   14.835713   -0.967931   -1.484700
 S    8.242063   21.776669   -1.484700
 S    8.242063   10.404369   -1.484700
 S    9.890845   24.648090   -1.547360
 S   16.484495    1.903490   -1.547360
 S   16.484495    7.589640   -1.547360
 S   23.078144    7.589640   -1.547360
 S   16.484495   13.275790   -1.547360
 S   16.484495   30.334240   -1.547360
 S    9.890845   30.334240   -1.547360
 S   23.078144   30.334240   -1.547360
 S   23.078144   13.275790   -1.547360
 S    9.890845    1.903490   -1.547360
 S    3.297195   24.648090   -1.547360
 S    3.297195   18.961941   -1.547360
 S   36.265446   18.961941   -1.547360
 S    9.890845   13.275790   -1.547360
 S   36.265446   24.648090   -1.547360
 S    9.890845   18.961941   -1.547360
 S    9.890845    7.589640   -1.547360
 S    3.297195    7.589640   -1.547360
 S   36.265446    7.589640   -1.547360
 S    3.297195   13.275790   -1.547360
 S   36.265446   13.275790   -1.547360
 S    3.297195   30.334240   -1.547360
 S    3.297195    1.903490   -1.547360
 S   36.265446   30.334240   -1.547360
 S   36.265446    1.903490   -1.547360
 S   26.374231   18.961941   -1.547360
 S   26.374231   24.648090   -1.547360
 S   26.374231    7.589640   -1.547360
 S   26.374231   13.275790   -1.547360
 S   26.374231   30.334240   -1.547360
 S   26.374231    1.903490   -1.547360
 S   19.780581   24.648090   -1.547360
 S   19.780581   18.961941   -1.547360
 S   19.780581   13.275790   -1.547360
 S   28.023012   33.148968   -1.484700
 S   34.616665   33.148968   -1.484700
 S    8.242063   33.148968   -1.484700
 S   21.429363   33.148968   -1.484700
 S   28.023012   21.776669   -1.484700
 S   14.835713   33.148968   -1.484700
 S   28.023012   10.404369   -1.484700
 S   28.023012    4.718219   -1.484700
 S   28.023012   16.090519   -1.484700
 S    1.648413   33.148968   -1.484700
 S   28.023012   -0.967931   -1.484700
 S   28.023012   27.462818   -1.484700
 S   21.429363   21.776669   -1.484700
 S   21.429363   16.090519   -1.484700
 S   21.429363   10.404369   -1.484700
 S   21.429363    4.718219   -1.484700
 S   21.429363   27.462818   -1.484700
 S   21.429363   -0.967931   -1.484700
 S   14.835713   21.776669   -1.484700
 S    4.945238    4.770640    1.538520
 S    4.945238   10.456790    1.538520
 S    4.945238   16.142941    1.538520
 S   11.538888   27.515240    1.538520
 S   18.132538   10.456790    1.538520
 S    4.945238   27.515240    1.538520
 S   18.132538   16.142941    1.538520
 S   11.538888   10.456790    1.538520
 S    4.945238   21.829090    1.538520
 S   11.538888    4.770640    1.538520
 S   11.538888   16.142941    1.538520
 S   24.726189   27.515240    1.538520
 S   18.132538   27.515240    1.538520
 S   11.538888   21.829090    1.538520
 S   24.726189    4.770640    1.538520
 S   24.726189   16.142941    1.538520
 S   18.132538   21.829090    1.538520
 S   24.726189   21.829090    1.538520
 S   24.726189   10.456790    1.538520
 S   18.132538    4.770640    1.538520
 S   37.913486   27.515240    1.538520
 S   37.913486   10.456790    1.538520
 S   37.913486    4.770640    1.538520
 S   37.913486   16.142941    1.538520
 S   37.913486   21.829090    1.538520
 S    3.402541   18.996290    1.677660
 S    3.402541   13.310140    1.677660
 S    3.402541    7.623990    1.677660
 S    3.402541   24.682440    1.677660
 S   16.589842    1.937840    1.677660
 S   16.589842   30.368589    1.677660
 S    3.402541   30.368589    1.677660
 S    3.402541    1.937840    1.677660
 S   16.589842   13.310140    1.677660
 S   16.589842   18.996290    1.677660
 S   16.589842   24.682440    1.677660
 S   16.589842    7.623990    1.677660
 S   18.132538   -0.915510    1.538520
 S   11.538888   -0.915510    1.538520
 S   24.726189   -0.915510    1.538520
 S   37.913486   -0.915510    1.538520
 S   -1.648412   16.142941    1.538520
 S   -1.648412   10.456790    1.538520
 S    4.945238   -0.915510    1.538520
 S   -1.648412   21.829090    1.538520
 S   31.319838   -0.915510    1.538520
 S   -1.648412    4.770640    1.538520
 S   -1.648412   -0.915510    1.538520
 S   -1.648412   27.515240    1.538520
 S   31.319838   16.142941    1.538520
 S   31.319838   21.829090    1.538520
 S   31.319838   27.515240    1.538520
 S   31.319838   10.456790    1.538520
 S   31.319838    4.770640    1.538520
 S   26.268885    1.937840    1.677660
 S   19.675234   24.682440    1.677660
 S   19.675234   18.996290    1.677660
 S   26.268885   18.996290    1.677660
 S   26.268885   24.682440    1.677660
 S   26.268885   13.310140    1.677660
 S   32.862534    1.937840    1.677660
 S   26.268885   30.368589    1.677660
 S   26.268885    7.623990    1.677660
 S   32.862534   13.310140    1.677660
 S   32.862534   18.996290    1.677660
 S   32.862534   30.368589    1.677660
 S   32.862534    7.623990    1.677660
 S   36.370792    1.937840    1.677660
 S   -0.105716   30.368589    1.677660
 S   -0.105716    1.937840    1.677660
 S   32.862534   24.682440    1.677660
 S    1.648413    4.583009    1.715220
 S   34.616665    4.583009    1.715220
 S    1.648413   10.269159    1.715220
 S   34.616665   10.269159    1.715220
 S   34.616665   15.955309    1.715220
 S    1.648413   21.641459    1.715220
 S    8.242063    4.583009    1.715220
 S    1.648413   15.955309    1.715220
 S   -0.105716   24.682440    1.677660
 S   36.370792   18.996290    1.677660
 S   36.370792   13.310140    1.677660
 S   36.370792   24.682440    1.677660
 S   -0.105716   18.996290    1.677660
 S   -0.105716   13.310140    1.677660
 S   36.370792    7.623990    1.677660
 S   -0.105716    7.623990    1.677660
 S   36.370792   30.368589    1.677660
 S   23.183491   24.682440    1.677660
 S   23.183491    7.623990    1.677660
 S   23.183491    1.937840    1.677660
 S   19.675234   13.310140    1.677660
 S   23.183491   30.368589    1.677660
 S   19.675234    1.937840    1.677660
 S   29.777142   18.996290    1.677660
 S   19.675234   30.368589    1.677660
 S   19.675234    7.623990    1.677660
 S   29.777142   24.682440    1.677660
 S   29.777142   30.368589    1.677660
 S   13.081584    1.937840    1.677660
 S   29.777142    1.937840    1.677660
 S   23.183491   13.310140    1.677660
 S   29.777142    7.623990    1.677660
 S   23.183491   18.996290    1.677660
 S   29.777142   13.310140    1.677660
 S   13.081584   18.996290    1.677660
 S   13.081584   24.682440    1.677660
 S   13.081584    7.623990    1.677660
 S   13.081584   30.368589    1.677660
 S    6.487934   18.996290    1.677660
 S    6.487934   24.682440    1.677660
 S   13.081584   13.310140    1.677660
 S    6.487934   13.310140    1.677660
 S    6.487934   30.368589    1.677660
 S    6.487934    7.623990    1.677660
 S    9.996191    1.937840    1.677660
 S    6.487934    1.937840    1.677660
 S    9.996191   30.368589    1.677660
 S    9.996191    7.623990    1.677660
 S    9.996191   24.682440    1.677660
 S    9.996191   18.996290    1.677660
 S    9.996191   13.310140    1.677660
 S    8.242063   10.269159    1.715220
 S    8.242063   15.955309    1.715220
 S   34.616665   27.327608    1.715220
 S    1.648413   27.327608    1.715220
 S   34.616665   21.641459    1.715220
 S   21.429363    4.583009    1.715220
 S   14.835713   27.327608    1.715220
 S   21.429363   27.327608    1.715220
 S   21.429363   10.269159    1.715220
 S   14.835713   10.269159    1.715220
 S   14.835713   15.955309    1.715220
 S   21.429363   21.641459    1.715220
 S   21.429363   15.955309    1.715220
 S    8.242063   21.641459    1.715220
 S    8.242063   27.327608    1.715220
 S   14.835713    4.583009    1.715220
 S   14.835713   21.641459    1.715220
 S   34.616665   -1.103141    1.715220
 S   21.429363   -1.103141    1.715220
 S   28.023012   10.269159    1.715220
 S   28.023012   -1.103141    1.715220
 S   28.023012   27.327608    1.715220
 S   28.023012   21.641459    1.715220
 S   28.023012   15.955309    1.715220
 S   28.023012    4.583009    1.715220
 S   28.023012   33.013760    1.715220
 S   21.429363   33.013760    1.715220
 S    1.648413   -1.103141    1.715220
 S    8.242063   33.013760    1.715220
 S    1.648413   33.013760    1.715220
 S   14.835713   33.013760    1.715220
 S   34.616665   33.013760    1.715220
 S    8.242063   -1.103141    1.715220
 S   14.835713   -1.103141    1.715220
Ti   34.616665   17.983524    2.630920
Ti    8.242063    0.925074    2.630920
Ti    1.648413   23.669674    2.630920
Ti   14.835713    0.925074    2.630920
Ti   34.616665   23.669674    2.630920
Ti    8.242063   17.983524    2.630920
Ti   34.616665    6.611224    2.630920
Ti    8.242063   23.669674    2.630920
Ti    8.242063   12.297374    2.630920
Ti    1.648413   12.297374    2.630920
Ti   34.616665    0.925074    2.630920
Ti    1.648413    0.925074    2.630920
Ti    1.648413   29.355824    2.630920
Ti   34.616665   12.297374    2.630920
Ti   34.616665   29.355824    2.630920
Ti    1.648413   17.983524    2.630920
Ti    1.648413    6.611224    2.630920
Ti   14.835713   29.355824    2.630920
Ti   28.023012   29.355824    2.630920
Ti   28.023012    6.611224    2.630920
Ti   28.023012   17.983524    2.630920
Ti   21.429363    0.925074    2.630920
Ti   14.835713   23.669674    2.630920
Ti   14.835713    6.611224    2.630920
Ti   14.835713   12.297374    2.630920
Ti   21.429363   17.983524    2.630920
Ti   14.835713   17.983524    2.630920
Ti   28.023012    0.925074    2.630920
Ti   21.429363   23.669674    2.630920
Ti   21.429363   12.297374    2.630920
Ti   21.429363    6.611224    2.630920
Ti   21.429363   29.355824    2.630920
Ti    8.242063   29.355824    2.630920
Ti    8.242063    6.611224    2.630920
Ti   28.023012   23.669674    2.630920
Ti   28.023012   12.297374    2.630920
